tests/main/reference/launch_svc/outputIIDM.xml
<?xml version="1.0" encoding="UTF-8"?>
<iidm:network xmlns:iidm="http://www.powsybl.org/schema/iidm/1_5" id="ieee14bus" caseDate="2017-06-09T10:14:24.146000+02:00" forecastDistance="0" sourceFormat="CIM1">
    <iidm:substation id="_BUS___10_SS" name="BUS   10_SS" country="AF" geographicalTags="_SGR_01">
        <iidm:voltageLevel id="_BUS___10_VL" name="BUS   10_VL" nominalV="13.800000000000001" topologyKind="BUS_BREAKER">
            <iidm:busBreakerTopology>
                <iidm:bus id="_BUS___10_TN" v="14.477524039594517" angle="-4.8001821268190641"/>
            </iidm:busBreakerTopology>
            <iidm:load id="_LOAD__10_EC" name="LOAD  10" loadType="UNDEFINED" p0="9" q0="5.7999999999999998" bus="_BUS___10_TN" connectableBus="_BUS___10_TN" p="9" q="5.7999999999999998"/>
        </iidm:voltageLevel>
    </iidm:substation>
    <iidm:substation id="_BUS___11_SS" name="BUS   11_SS" country="AF" geographicalTags="_SGR_01">
        <iidm:voltageLevel id="_BUS___11_VL" name="BUS   11_VL" nominalV="13.800000000000001" topologyKind="BUS_BREAKER">
            <iidm:busBreakerTopology>
                <iidm:bus id="_BUS___11_TN" v="14.571966187604744" angle="-4.502602865293805"/>
            </iidm:busBreakerTopology>
            <iidm:load id="_LOAD__11_EC" name="LOAD  11" loadType="UNDEFINED" p0="3.5" q0="1.8" bus="_BUS___11_TN" connectableBus="_BUS___11_TN" p="3.5000000000000004" q="1.8000000000000003"/>
        </iidm:voltageLevel>
    </iidm:substation>
    <iidm:substation id="_BUS___12_SS" name="BUS   12_SS" country="AF" geographicalTags="_SGR_01">
        <iidm:voltageLevel id="_BUS___12_VL" name="BUS   12_VL" nominalV="13.800000000000001" topologyKind="BUS_BREAKER">
            <iidm:busBreakerTopology>
                <iidm:bus id="_BUS___12_TN" v="14.559229214310676" angle="-4.7994342134282553"/>
            </iidm:busBreakerTopology>
            <iidm:load id="_LOAD__12_EC" name="LOAD  12" loadType="UNDEFINED" p0="6.0999999999999996" q0="1.6000000000000001" bus="_BUS___12_TN" connectableBus="_BUS___12_TN" p="6.0999999999999996" q="1.6000000000000001"/>
        </iidm:voltageLevel>
    </iidm:substation>
    <iidm:substation id="_BUS___13_SS" name="BUS   13_SS" country="AF" geographicalTags="_SGR_01">
        <iidm:voltageLevel id="_BUS___13_VL" name="BUS   13_VL" nominalV="13.800000000000001" topologyKind="BUS_BREAKER">
            <iidm:busBreakerTopology>
                <iidm:bus id="_BUS___13_TN" v="14.49062549580391" angle="-4.8763300106494007"/>
            </iidm:busBreakerTopology>
            <iidm:load id="_LOAD__13_EC" name="LOAD  13" loadType="UNDEFINED" p0="13.5" q0="5.7999999999999998" bus="_BUS___13_TN" connectableBus="_BUS___13_TN" p="13.5" q="5.7999999999999998"/>
        </iidm:voltageLevel>
    </iidm:substation>
    <iidm:substation id="_BUS___14_SS" name="BUS   14_SS" country="AF" geographicalTags="_SGR_01">
        <iidm:voltageLevel id="_BUS___14_VL" name="BUS   14_VL" nominalV="13.800000000000001" topologyKind="BUS_BREAKER">
            <iidm:busBreakerTopology>
                <iidm:bus id="_BUS___14_TN" v="14.270207213472434" angle="-5.7441627705291456"/>
            </iidm:busBreakerTopology>
            <iidm:load id="_LOAD__14_EC" name="LOAD  14" loadType="UNDEFINED" p0="14.9" q0="5" bus="_BUS___14_TN" connectableBus="_BUS___14_TN" p="14.899999999999999" q="5"/>
        </iidm:voltageLevel>
    </iidm:substation>
    <iidm:substation id="_BUS____1_SS" name="BUS    1_SS" country="AF" geographicalTags="_SGR_01">
        <iidm:voltageLevel id="_BUS____1_VL" name="BUS    1_VL" nominalV="69" topologyKind="BUS_BREAKER">
            <iidm:busBreakerTopology>
                <iidm:bus id="_BUS____1_TN" v="73.134188704833718" angle="10.347517002696828"/>
            </iidm:busBreakerTopology>
            <iidm:generator id="_GEN____1_SM" name="GEN    1" energySource="OTHER" minP="-9999" maxP="9999" voltageRegulatorOn="true" targetP="232.34630000000001" targetV="73.140000000000001" targetQ="-16.759" bus="_BUS____1_TN" connectableBus="_BUS____1_TN" p="-232.43182757945502" q="-8.8256350263794801">
                <iidm:minMaxReactiveLimits minQ="-999" maxQ="999"/>
            </iidm:generator>
        </iidm:voltageLevel>
    </iidm:substation>
    <iidm:substation id="_BUS____2_SS" name="BUS    2_SS" country="AF" geographicalTags="_SGR_01">
        <iidm:voltageLevel id="_BUS____2_VL" name="BUS    2_VL" nominalV="69" topologyKind="BUS_BREAKER">
            <iidm:busBreakerTopology>
                <iidm:bus id="_BUS____2_TN" v="71.19429436430957" angle="5.5447067236451533"/>
            </iidm:busBreakerTopology>
            <iidm:generator id="_GEN____2_SM" name="GEN    2" energySource="OTHER" minP="-9999" maxP="9999" voltageRegulatorOn="true" targetP="40" targetV="72.105000000000004" targetQ="42.399999999999999" bus="_BUS____2_TN" connectableBus="_BUS____2_TN" p="-40.08552757945499" q="-4.3725525666991016">
                <iidm:reactiveCapabilityCurve>
                    <iidm:point p="0" minQ="-690" maxQ="690"/>
                    <iidm:point p="2300" minQ="-680" maxQ="680"/>
                </iidm:reactiveCapabilityCurve>
            </iidm:generator>
            <iidm:load id="_LOAD___2_EC" name="LOAD   2" loadType="UNDEFINED" p0="21.699999999999999" q0="12.699999999999999" bus="_BUS____2_TN" connectableBus="_BUS____2_TN" p="21.69999089525388" q="12.699991119027684"/>
        </iidm:voltageLevel>
    </iidm:substation>
    <iidm:substation id="_BUS____3_SS" name="BUS    3_SS" country="AF" geographicalTags="_SGR_01">
        <iidm:voltageLevel id="_BUS____3_VL" name="BUS    3_VL" nominalV="69" topologyKind="BUS_BREAKER">
            <iidm:busBreakerTopology>
                <iidm:bus id="_BUS____3_TN" v="69.690000005679778" angle="-2.5122600646955608"/>
            </iidm:busBreakerTopology>
            <iidm:generator id="_GEN____3_SM" name="GEN    3" energySource="OTHER" minP="-9999" maxP="9999" voltageRegulatorOn="true" targetP="0" targetV="69.689999999999998" targetQ="23.399999999999999" bus="_BUS____3_TN" connectableBus="_BUS____3_TN" p="-0" q="-35.208575482804363">
                <iidm:minMaxReactiveLimits minQ="0" maxQ="40"/>
            </iidm:generator>
            <iidm:load id="_LOAD___3_EC" name="LOAD   3" loadType="UNDEFINED" p0="94.200000000000003" q0="19" bus="_BUS____3_TN" connectableBus="_BUS____3_TN" p="94.200000011516082" q="19.000000003871289"/>
        </iidm:voltageLevel>
    </iidm:substation>
    <iidm:substation id="_BUS____4_SS" name="BUS    4_SS" country="AF" geographicalTags="_SGR_01">
        <iidm:voltageLevel id="_BUS____9_VL" name="BUS    9_VL" nominalV="13.800000000000001" topologyKind="BUS_BREAKER">
            <iidm:busBreakerTopology>
                <iidm:bus id="_BUS____9_TN" v="14.540436425281031" angle="-4.6374276539370136"/>
            </iidm:busBreakerTopology>
            <iidm:load id="_LOAD___9_EC" name="LOAD   9" loadType="UNDEFINED" p0="29.5" q0="16.600000000000001" bus="_BUS____9_TN" connectableBus="_BUS____9_TN" p="29.5" q="16.600000000000001"/>
            <iidm:shunt id="_BANK___9_SC" name="BANK   9" sectionCount="1" voltageRegulatorOn="false" bus="_BUS____9_TN" connectableBus="_BUS____9_TN" q="-21.093590132441854">
                <iidm:shuntLinearModel bPerSection="0.099768999999999997" maximumSectionCount="1"/>
            </iidm:shunt>
        </iidm:voltageLevel>
        <iidm:voltageLevel id="_BUS____7_VL" name="BUS    7_VL" nominalV="13.800000000000001" topologyKind="BUS_BREAKER">
            <iidm:busBreakerTopology>
                <iidm:bus id="_BUS____7_TN" v="14.61645322139292" angle="-3.057580801853188"/>
            </iidm:busBreakerTopology>
        </iidm:voltageLevel>
        <iidm:voltageLevel id="_BUS____4_VL" name="BUS    4_VL" nominalV="69" topologyKind="BUS_BREAKER">
            <iidm:busBreakerTopology>
                <iidm:bus id="_BUS____4_TN" v="69.861495842626539" angle="0"/>
            </iidm:busBreakerTopology>
            <iidm:load id="_LOAD___4_EC" name="LOAD   4" loadType="UNDEFINED" p0="47.799999999999997" q0="-3.8999999999999999" bus="_BUS____4_TN" connectableBus="_BUS____4_TN" p="47.799990054187028" q="-3.8999986475359871"/>
        </iidm:voltageLevel>
        <iidm:twoWindingsTransformer id="_BUS____4-BUS____9-1_PT" name="BUS    4-BUS    9-1" r="0" x="1.0591881000000001" g="0" b="0" ratedU1="69" ratedU2="13.800000000000001" bus1="_BUS____4_TN" connectableBus1="_BUS____4_TN" voltageLevelId1="_BUS____4_VL" bus2="_BUS____9_TN" connectableBus2="_BUS____9_TN" voltageLevelId2="_BUS____9_VL" p1="16.004004402901867" q1="-1.0011162857801683" p2="-16.004004402901867" q2="2.311016888098623">
            <iidm:ratioTapChanger lowTapPosition="1" tapPosition="4" loadTapChangingCapabilities="false">
                <iidm:step r="0" x="0" g="0" b="0" rho="1.1111112000000001"/>
                <iidm:step r="0" x="0" g="0" b="0" rho="1.0834235999999999"/>
                <iidm:step r="0" x="0" g="0" b="0" rho="1.0570824999999999"/>
                <iidm:step r="0" x="0" g="0" b="0" rho="1.0319917000000001"/>
                <iidm:step r="0" x="0" g="0" b="0" rho="1.015744"/>
                <iidm:step r="0" x="0" g="0" b="0" rho="1"/>
                <iidm:step r="0" x="0" g="0" b="0" rho="0.98039220000000005"/>
                <iidm:step r="0" x="0" g="0" b="0" rho="0.96153849999999996"/>
                <iidm:step r="0" x="0" g="0" b="0" rho="0.94339629999999997"/>
                <iidm:step r="0" x="0" g="0" b="0" rho="0.92592589999999997"/>
                <iidm:step r="0" x="0" g="0" b="0" rho="0.90909090000000004"/>
            </iidm:ratioTapChanger>
            <iidm:currentLimits1 permanentLimit="836.74000000000001"/>
            <iidm:currentLimits2 permanentLimit="4183.6999999999998"/>
        </iidm:twoWindingsTransformer>
        <iidm:twoWindingsTransformer id="_BUS____4-BUS____7-1_PT" name="BUS    4-BUS    7-1" r="0" x="0.39824801999999998" g="0" b="0" ratedU1="69" ratedU2="13.800000000000001" bus1="_BUS____4_TN" connectableBus1="_BUS____4_TN" voltageLevelId1="_BUS____4_VL" bus2="_BUS____7_TN" connectableBus2="_BUS____7_TN" voltageLevelId2="_BUS____7_VL" p1="27.96832898114743" q1="-11.086476960364282" p2="-27.96832898114743" q2="12.852556121720868">
            <iidm:ratioTapChanger lowTapPosition="1" tapPosition="5" loadTapChangingCapabilities="false">
                <iidm:step r="0" x="0" g="0" b="0" rho="1.1111112000000001"/>
                <iidm:step r="0" x="0" g="0" b="0" rho="1.0875475999999999"/>
                <iidm:step r="0" x="0" g="0" b="0" rho="1.0649626999999999"/>
                <iidm:step r="0" x="0" g="0" b="0" rho="1.0432965999999999"/>
                <iidm:step r="0" x="0" g="0" b="0" rho="1.0224948"/>
                <iidm:step r="0" x="0" g="0" b="0" rho="1"/>
                <iidm:step r="0" x="0" g="0" b="0" rho="0.98039215999999996"/>
                <iidm:step r="0" x="0" g="0" b="0" rho="0.96153849999999996"/>
                <iidm:step r="0" x="0" g="0" b="0" rho="0.94339629999999997"/>
                <iidm:step r="0" x="0" g="0" b="0" rho="0.92592589999999997"/>
                <iidm:step r="0" x="0" g="0" b="0" rho="0.90909090000000004"/>
            </iidm:ratioTapChanger>
            <iidm:currentLimits1 permanentLimit="836.74000000000001"/>
            <iidm:currentLimits2 permanentLimit="4183.6999999999998"/>
        </iidm:twoWindingsTransformer>
    </iidm:substation>
    <iidm:substation id="_BUS____5_SS" name="BUS    5_SS" country="AF" geographicalTags="_SGR_01">
        <iidm:voltageLevel id="_BUS____6_VL" name="BUS    6_VL" nominalV="13.800000000000001" topologyKind="BUS_BREAKER">
            <iidm:busBreakerTopology>
                <iidm:bus id="_BUS____6_TN" v="14.766000000143986" angle="-3.9448230800255875"/>
            </iidm:busBreakerTopology>
            <iidm:generator id="_GEN____6_SM" name="GEN    6" energySource="OTHER" minP="-9999" maxP="9999" voltageRegulatorOn="true" targetP="0" targetV="14.766" targetQ="12.199999999999999" bus="_BUS____6_TN" connectableBus="_BUS____6_TN" p="-0" q="-15.928262353161532">
                <iidm:minMaxReactiveLimits minQ="-6" maxQ="24"/>
            </iidm:generator>
            <iidm:load id="_LOAD___6_EC" name="LOAD   6" loadType="UNDEFINED" p0="11.199999999999999" q0="7.5" bus="_BUS____6_TN" connectableBus="_BUS____6_TN" p="11.199999999999999" q="7.5"/>
        </iidm:voltageLevel>
        <iidm:voltageLevel id="_BUS____5_VL" name="BUS    5_VL" nominalV="69" topologyKind="BUS_BREAKER">
            <iidm:busBreakerTopology>
                <iidm:bus id="_BUS____5_TN" v="69.983732816209724" angle="1.5543231721709592"/>
            </iidm:busBreakerTopology>
            <iidm:load id="_LOAD___5_EC" name="LOAD   5" loadType="UNDEFINED" p0="7.5999999999999996" q0="1.6000000000000001" bus="_BUS____5_TN" connectableBus="_BUS____5_TN" p="7.5999982117193925" q="1.5999993725331698"/>
        </iidm:voltageLevel>
        <iidm:twoWindingsTransformer id="_BUS____5-BUS____6-1_PT" name="BUS    5-BUS    6-1" r="0" x="0.47994804000000002" g="0" b="0" ratedU1="69" ratedU2="13.800000000000001" bus1="_BUS____5_TN" connectableBus1="_BUS____5_TN" voltageLevelId1="_BUS____5_VL" bus2="_BUS____6_TN" connectableBus2="_BUS____6_TN" voltageLevelId2="_BUS____6_VL" p1="44.277745361430206" q1="10.010792518348774" p2="-44.277745361430192" q2="-5.62554701400125">
            <iidm:ratioTapChanger lowTapPosition="1" tapPosition="3" loadTapChangingCapabilities="false">
                <iidm:step r="0" x="0" g="0" b="0" rho="1.1111112000000001"/>
                <iidm:step r="0" x="0" g="0" b="0" rho="1.0917030999999999"/>
                <iidm:step r="0" x="0" g="0" b="0" rho="1.0729614000000001"/>
                <iidm:step r="0" x="0" g="0" b="0" rho="1.0474859999999999"/>
                <iidm:step r="0" x="0" g="0" b="0" rho="1.0231923999999999"/>
                <iidm:step r="0" x="0" g="0" b="0" rho="1"/>
                <iidm:step r="0" x="0" g="0" b="0" rho="0.98039220000000005"/>
                <iidm:step r="0" x="0" g="0" b="0" rho="0.96153849999999996"/>
                <iidm:step r="0" x="0" g="0" b="0" rho="0.94339629999999997"/>
                <iidm:step r="0" x="0" g="0" b="0" rho="0.92592589999999997"/>
                <iidm:step r="0" x="0" g="0" b="0" rho="0.90909090000000004"/>
            </iidm:ratioTapChanger>
            <iidm:currentLimits1 permanentLimit="836.74000000000001"/>
            <iidm:currentLimits2 permanentLimit="4183.6999999999998"/>
        </iidm:twoWindingsTransformer>
    </iidm:substation>
    <iidm:substation id="_BUS____8_SS" name="BUS    8_SS" country="AF" geographicalTags="_SGR_01">
        <iidm:voltageLevel id="_BUS____8_VL" name="BUS    8_VL" nominalV="13.800000000000001" topologyKind="BUS_BREAKER">
            <iidm:busBreakerTopology>
                <iidm:bus id="_BUS____8_TN" v="15.042000000013095" angle="-3.0575808006200393"/>
            </iidm:busBreakerTopology>
            <iidm:generator id="_GEN____8_SM" name="GEN    8" energySource="OTHER" minP="-9999" maxP="9999" voltageRegulatorOn="true" targetP="0" targetV="15.042" targetQ="17.399999999999999" bus="_BUS____8_TN" connectableBus="_BUS____8_TN" p="-0" q="-19.081484063671642">
                <iidm:minMaxReactiveLimits minQ="-6" maxQ="24"/>
            </iidm:generator>
        </iidm:voltageLevel>
    </iidm:substation>
    <iidm:line id="_BUS___10-BUS___11-1_AC" name="BUS   10-BUS   11-1" r="0.15625600000000001" x="0.36577799999999999" g1="0" b1="0" g2="0" b2="0" bus1="_BUS___10_TN" connectableBus1="_BUS___10_TN" voltageLevelId1="_BUS___10_VL" bus2="_BUS___11_TN" connectableBus2="_BUS___11_TN" voltageLevelId2="_BUS___11_VL" p1="-3.8808313753458301" q1="-2.072404279417456" p2="3.895261073850167" q2="2.1061826063906235">
        <iidm:currentLimits1 permanentLimit="4183.6999999999998"/>
    </iidm:line>
    <iidm:line id="_BUS___12-BUS___13-1_AC" name="BUS   12-BUS   13-1" r="0.42071999999999998" x="0.38065100000000002" g1="0" b1="0" g2="0" b2="0" bus1="_BUS___12_TN" connectableBus1="_BUS___12_TN" voltageLevelId1="_BUS___12_VL" bus2="_BUS___13_TN" connectableBus2="_BUS___13_TN" voltageLevelId2="_BUS___13_VL" p1="1.6405096642061849" q1="0.81127341726510804" p2="-1.6338617081251667" q2="-0.80525860663049165">
        <iidm:currentLimits1 permanentLimit="4183.6999999999998"/>
    </iidm:line>
    <iidm:line id="_BUS___13-BUS___14-1_AC" name="BUS   13-BUS   14-1" r="0.325519" x="0.66276900000000005" g1="0" b1="0" g2="0" b2="0" bus1="_BUS___13_TN" connectableBus1="_BUS___13_TN" voltageLevelId1="_BUS___13_VL" bus2="_BUS___14_TN" connectableBus2="_BUS___14_TN" voltageLevelId2="_BUS___14_VL" p1="5.7282457982733952" q1="2.0415340178598131" p2="-5.6709164838561748" q2="-1.9248093646537419">
        <iidm:currentLimits1 permanentLimit="4183.6999999999998"/>
    </iidm:line>
    <iidm:line id="_BUS____1-BUS____2-1_AC" name="BUS    1-BUS    2-1" r="0.922682" x="2.8170799999999998" g1="0" b1="0.00055450499999999995" g2="0" b2="0.00055450499999999995" bus1="_BUS____1_TN" connectableBus1="_BUS____1_TN" voltageLevelId1="_BUS____1_VL" bus2="_BUS____2_TN" connectableBus2="_BUS____2_TN" voltageLevelId2="_BUS____2_VL" p1="156.57381280682307" q1="2.602664133927429" p2="-152.33934948595004" q2="4.5493474397714504">
        <iidm:currentLimits1 permanentLimit="836.74000000000001"/>
    </iidm:line>
    <iidm:line id="_BUS____1-BUS____5-1_AC" name="BUS    1-BUS    5-1" r="2.5723699999999998" x="10.6189" g1="0" b1="0.00051670000000000004" g2="0" b2="0.00051670000000000004" bus1="_BUS____1_TN" connectableBus1="_BUS____1_TN" voltageLevelId1="_BUS____1_VL" bus2="_BUS____5_TN" connectableBus2="_BUS____5_TN" voltageLevelId2="_BUS____5_VL" p1="75.858012179994176" q1="6.2229654404465666" p2="-73.051622004455922" q2="0.067704134870902669">
        <iidm:currentLimits1 permanentLimit="836.74000000000001"/>
    </iidm:line>
    <iidm:line id="_BUS____2-BUS____3-1_AC" name="BUS    2-BUS    3-1" r="2.23719" x="9.4253499999999999" g1="0" b1="0.00045998749999999998" g2="0" b2="0.00045998749999999998" bus1="_BUS____2_TN" connectableBus1="_BUS____2_TN" voltageLevelId1="_BUS____2_VL" bus2="_BUS____3_TN" connectableBus2="_BUS____3_TN" voltageLevelId2="_BUS____3_VL" p1="73.565107034999698" q1="-3.2341454126568721" p2="-71.176076994226364" q2="8.7336773427925571">
        <iidm:currentLimits1 permanentLimit="836.74000000000001"/>
    </iidm:line>
    <iidm:line id="_BUS____2-BUS____4-1_AC" name="BUS    2-BUS    4-1" r="2.7666200000000001" x="8.3946000000000005" g1="0" b1="0.00035706799999999999" g2="0" b2="0.00035706799999999999" bus1="_BUS____2_TN" connectableBus1="_BUS____2_TN" voltageLevelId1="_BUS____2_VL" bus2="_BUS____4_TN" connectableBus2="_BUS____4_TN" voltageLevelId2="_BUS____4_VL" p1="55.823595560455196" q1="-6.1320802127028662" p2="-54.112435958861901" q2="7.7715948877400143">
        <iidm:currentLimits1 permanentLimit="836.74000000000001"/>
    </iidm:line>
    <iidm:line id="_BUS____2-BUS____5-1_AC" name="BUS    2-BUS    5-1" r="2.7113900000000002" x="8.2784300000000002" g1="0" b1="0.000363369" g2="0" b2="0.000363369" bus1="_BUS____2_TN" connectableBus1="_BUS____2_TN" voltageLevelId1="_BUS____2_VL" bus2="_BUS____5_TN" connectableBus2="_BUS____5_TN" voltageLevelId2="_BUS____5_VL" p1="41.336187752224355" q1="-3.5105448080116015" p2="-40.420663865929043" q2="2.6843643006857549">
        <iidm:currentLimits1 permanentLimit="836.74000000000001"/>
    </iidm:line>
    <iidm:line id="_BUS____3-BUS____4-1_AC" name="BUS    3-BUS    4-1" r="3.19035" x="8.1427399999999999" g1="0" b1="0.00013442550000000001" g2="0" b2="0.00013442550000000001" bus1="_BUS____3_TN" connectableBus1="_BUS____3_TN" voltageLevelId1="_BUS____3_VL" bus2="_BUS____4_TN" connectableBus2="_BUS____4_TN" voltageLevelId2="_BUS____4_VL" p1="-23.023922139604895" q1="7.4748981422040588" p2="23.415538954350826" q2="-7.7843180976128714">
        <iidm:currentLimits1 permanentLimit="836.74000000000001"/>
    </iidm:line>
    <iidm:line id="_BUS____4-BUS____5-1_AC" name="BUS    4-BUS    5-1" r="0.63559299999999996" x="2.0048599999999999" g1="0" b1="0" g2="0" b2="0" bus1="_BUS____4_TN" connectableBus1="_BUS____4_TN" voltageLevelId1="_BUS____4_VL" bus2="_BUS____5_TN" connectableBus2="_BUS____5_TN" voltageLevelId2="_BUS____5_VL" p1="-61.07542636596073" q1="16.000315097963817" p2="61.59454230985051" q2="-14.362860325386267">
        <iidm:currentLimits1 permanentLimit="836.74000000000001"/>
    </iidm:line>
    <iidm:line id="_BUS____6-BUS___11-1_AC" name="BUS    6-BUS   11-1" r="0.18088000000000001" x="0.37878499999999998" g1="0" b1="0" g2="0" b2="0" bus1="_BUS____6_TN" connectableBus1="_BUS____6_TN" voltageLevelId1="_BUS____6_VL" bus2="_BUS___11_TN" connectableBus2="_BUS___11_TN" voltageLevelId2="_BUS___11_VL" p1="7.4548451850012976" q1="4.0309590743589512" p2="-7.3952610737953233" q2="-3.9061826061858209">
        <iidm:currentLimits1 permanentLimit="4183.6999999999998"/>
    </iidm:line>
    <iidm:line id="_BUS____6-BUS___12-1_AC" name="BUS    6-BUS   12-1" r="0.23407" x="0.48716500000000001" g1="0" b1="0" g2="0" b2="0" bus1="_BUS____6_TN" connectableBus1="_BUS____6_TN" voltageLevelId1="_BUS____6_VL" bus2="_BUS___12_TN" connectableBus2="_BUS___12_TN" voltageLevelId2="_BUS___12_VL" p1="7.8130919820910911" q1="2.5623374785367456" p2="-7.7405096643338762" q2="-2.4112734172294736">
        <iidm:currentLimits1 permanentLimit="4183.6999999999998"/>
    </iidm:line>
    <iidm:line id="_BUS____6-BUS___13-1_AC" name="BUS    6-BUS   13-1" r="0.125976" x="0.248086" g1="0" b1="0" g2="0" b2="0" bus1="_BUS____6_TN" connectableBus1="_BUS____6_TN" voltageLevelId1="_BUS____6_VL" bus2="_BUS___13_TN" connectableBus2="_BUS___13_TN" voltageLevelId2="_BUS___13_VL" p1="17.809808302676323" q1="7.4605128144199897" p2="-17.594384090392552" q2="-7.0362754110365548">
        <iidm:currentLimits1 permanentLimit="4183.6999999999998"/>
    </iidm:line>
    <iidm:line id="_BUS____7-BUS____8-1_AC" name="BUS    7-BUS    8-1" r="0" x="0.33545999999999998" g1="0" b1="0" g2="0" b2="0" bus1="_BUS____7_TN" connectableBus1="_BUS____7_TN" voltageLevelId1="_BUS____7_VL" bus2="_BUS____8_TN" connectableBus2="_BUS____8_TN" voltageLevelId2="_BUS____8_VL" p1="-1.4105863178903721e-08" q1="-18.541657971788684" p2="1.4105863178903721e-08" q2="19.081484063704288">
        <iidm:currentLimits1 permanentLimit="4183.6999999999998"/>
    </iidm:line>
    <iidm:line id="_BUS____7-BUS____9-1_AC" name="BUS    7-BUS    9-1" r="0" x="0.20950299999999999" g1="0" b1="0" g2="0" b2="0" bus1="_BUS____7_TN" connectableBus1="_BUS____7_TN" voltageLevelId1="_BUS____7_VL" bus2="_BUS____9_TN" connectableBus2="_BUS____9_TN" voltageLevelId2="_BUS____9_VL" p1="27.968328995253263" q1="5.6891018500677237" p2="-27.968328995253255" q2="-4.8902852495341325">
        <iidm:currentLimits1 permanentLimit="4183.6999999999998"/>
    </iidm:line>
    <iidm:line id="_BUS____9-BUS___10-1_AC" name="BUS    9-BUS   10-1" r="0.060579000000000001" x="0.16092200000000001" g1="0" b1="0" g2="0" b2="0" bus1="_BUS____9_TN" connectableBus1="_BUS____9_TN" voltageLevelId1="_BUS____9_VL" bus2="_BUS___10_TN" connectableBus2="_BUS___10_TN" voltageLevelId2="_BUS___10_VL" p1="5.1307587229859672" q1="3.7583836490233087" p2="-5.1191686234104132" q2="-3.7275957191483124">
        <iidm:currentLimits1 permanentLimit="4183.6999999999998"/>
    </iidm:line>
    <iidm:line id="_BUS____9-BUS___14-1_AC" name="BUS    9-BUS   14-1" r="0.24206800000000001" x="0.51491200000000004" g1="0" b1="0" g2="0" b2="0" bus1="_BUS____9_TN" connectableBus1="_BUS____9_TN" voltageLevelId1="_BUS____9_VL" bus2="_BUS___14_TN" connectableBus2="_BUS___14_TN" voltageLevelId2="_BUS___14_VL" p1="9.341574681750684" q1="3.314474850283152" p2="-9.2290835149672503" q2="-3.0751906339852879">
        <iidm:currentLimits1 permanentLimit="4183.6999999999998"/>
    </iidm:line>
</iidm:network>
